Hi all,when i running PARSEC on M5 FS mode, the simulation results of each application has three parts of the following sections ---------- Begin Simulation Statistics ----------...............................
......................---------- End Simulation Statistics   ----------my script is:#!/bin/sh# File to run the blackscholes benchmarkcd /parsec/install/bin/sbin/m5 resetstats./blackscholes 1 /parsec/install/inputs/blackscholes/in_4K.txt /parsec/install/inputs/blackscholes/prices.txt
/sbin/m5 exitSo why there are three statistics in one application result? which one is the benchmark simulation result? maybe my question is a little trivial.Thanks,Sheng 
_______________________________________________
m5-users mailing list
m5-users@m5sim.org
http://m5sim.org/cgi-bin/mailman/listinfo/m5-users
